! B3LYP 6-31G(d) Opt TightSCF
%pal
   nprocs 16
end

* xyz 0 1
C    3.370287   0.955182   0.934529
N    3.401358  -0.063798  -0.123059
C    4.784165  -0.286445  -0.562848
S    2.690064  -1.562753   0.447288
O    3.561319  -2.732491   0.078221
O    2.531793  -1.549275   1.944088
N    1.133332  -1.801526  -0.294897
C    0.173127  -0.747736   0.077678
C    0.148220   0.397119  -0.954013
C   -0.770016   1.524754  -0.474477
C   -2.116121   1.019455  -0.011220
C   -3.168837   1.935743   0.138577
C   -4.409906   1.516883   0.622445
C   -4.614039   0.180258   0.971288
O   -5.859982  -0.223054   1.446369
C   -3.567577  -0.741350   0.839723
C   -2.310102  -0.330767   0.368395
C   -1.227733  -1.367867   0.176032
H    2.327320   1.126707   1.272487
H    3.991959   0.652457   1.806207
H    3.748283   1.922983   0.540717
H    4.798158  -0.990887  -1.421409
H    5.407413  -0.697268   0.262408
H    5.233677   0.666388  -0.917030
H    1.268976  -1.833201  -1.331941
H    0.417887  -0.331042   1.080663
H    1.166313   0.807990  -1.107625
H   -0.214605   0.018345  -1.935537
H   -0.282267   2.056807   0.371097
H   -0.904254   2.251899  -1.304783
H   -3.026475   2.978437  -0.117980
H   -5.214630   2.233376   0.728089
H   -6.041218  -1.185163   1.707894
H   -3.734524  -1.779063   1.102376
H   -1.240767  -2.085417   1.025909
H   -1.450595  -1.935681  -0.753970
*